%nproc=28
%mem=16GB
%chk=HKUST1_Node_Methane.chk
#p M06L/gen empiricaldispersion=gd3 opt  SCF=XQC

FFEnergy

0 1
C     8.837975     4.379719    23.683281
C     9.820525     5.077076    22.987093
H    10.217673     6.020419    23.365477
Cu    13.171500     7.458607    20.627573
Cu    13.171500     5.712893    18.886927
O    11.780919     8.362676    19.566829
O    14.562035     6.401815    21.536212
O    14.562077     8.362679    19.566826
O    11.780969     6.401812    21.536215
O    11.780923     4.808821    19.947674
O    14.562031     6.769688    17.978285
O    14.562082     4.808824    19.947671
O    11.780965     6.769685    17.978288
C    11.369236     7.856902    18.481012
C    14.973764     5.314598    21.033488
C    14.973757     7.856907    18.481007
C    11.369243     5.314593    21.033493
C    17.504777     2.667212    21.975655
C    17.505024     4.379719    23.683282
C     8.838222     2.667212    21.975655
C     8.837976     8.791781    15.831218
C    17.504778    10.504288    17.538845
C    17.505025     8.791781    15.831219
C     8.838223    10.504288    17.538845
C    10.317251     8.600513    17.735322
C    16.025749     4.570987    21.779178
C    16.025746     8.600516    17.735320
C    10.317254     4.570984    21.779180
C    16.522241     3.361567    21.276466
C    16.522476     5.077077    22.987092
C     9.820761     3.361566    21.276467
C     9.820524     8.094423    16.527408
C    16.522239     9.809934    18.238033
C    16.522475     8.094424    16.527407
C     9.820759     9.809933    18.238034
C    17.996876     9.996564    16.335583
C     8.346124     3.174937    23.178917
C     8.346126     9.996565    16.335581
C    17.996874     3.174935    23.178919
H    16.124919     2.980557    20.334258
H    16.125330     6.020421    23.365475
H    10.218084     2.980555    20.334259
H    10.217671     7.151079    16.149025
H    16.124916    10.190945    19.180241
H    16.125327     7.151081    16.149023
H    10.218082    10.190943    19.180243
H    18.768195    10.543079    15.787600
H     7.574804     2.628421    23.726900
H     7.574809    10.543082    15.787596
H    18.768191     2.628418    23.726904
H    17.890515     4.776473    24.625121
H    17.890075     1.724189    21.581540
H    17.890076    11.447310    17.932962
H    17.890517     8.395026    14.889380
H     8.452925    11.447311    17.932960
H     8.452485     8.395027    14.889379
H     8.452483     4.776474    24.625120
H     8.452924     1.724190    21.581538
H    13.171500     9.217582    22.381442
C    13.171500     9.975285    23.136945
H    14.025132    10.607432    23.008095
H    12.279119    10.560044    23.055622
H    13.210249     9.516083    24.102622

H C O  0
def2SVP
****
Cu  0
SDD
****

Cu  0
SDD

